                 HEY X - - - - - - - - - -
              ANYONE - X O - - - - - - - -
              INSTAL - X - - - - - - - - -
              DRIVER - O - - - - - - - - -
            NINTENDO - X - - - - - - - - -
                 USB - X - - - - - - - - -
              DONGLE - X - - - - - - - - -
               ERROR - - O - - - - - - - -
                  IM - - S - - - - - - - -
                  CP - - - - - S - - - - -
         DESTINATION - - - - - X - - - - -
                FILE - - - - - X - - - - -
             OPERAND - - - - - X - - - - -
                 ^^^ - - - - - X - - - - -
              MODULE - - - - - X - - - - -
             MODPATH - - - - - X - - - - -
              /NET^M - - - - - X - - - - -
                 VAR - - - - - - X - - - -
                   $ - - - - - - - O - - -
            JOAPINTO - - - - - - - X - - -
                  VI - - - - - - - X - - -
    ﻿SEVEN_SIX_TWO - - - - - - - X - - -
            VARIABLE - - - - - - - X - - -
           JOAOPINTO - - - - - - - - S - -
                   % - - - - - - - - X - -
                   S - - - - - - - - S - -
                TYPE - - - - - - - - - - X
          EVERYTHING - - - - - - - - - - X
                LOAD - - - - - - - - - - O
                 VIM - - - - - - - - - - X
